<?xml version="1.0" encoding="UTF-8"?>

<!-- generated on 2025-06-07 09:46:58 by Eclipse SUMO netedit Version 1.23.1
<neteditConfiguration xmlns:xsi="http://www.w3.org/2001/XMLSchema-instance" xsi:noNamespaceSchemaLocation="http://sumo.dlr.de/xsd/neteditConfiguration.xsd">

    <input>
        <sumo-net-file value="C:\Users\Acer\Sumo\circle\circlenet.net.xml"/>
    </input>

    <output>
        <output-file value="C:\Users\Acer\Sumo\circle\circlenet.net.xml"/>
    </output>

    <processing>
        <offset.disable-normalization value="true"/>
    </processing>

    <junctions>
        <no-turnarounds value="true"/>
    </junctions>

    <netedit>
        <new-network value="false"/>
    </netedit>

</neteditConfiguration>
-->

<net version="1.20" junctionCornerDetail="5" limitTurnSpeed="5.50" xmlns:xsi="http://www.w3.org/2001/XMLSchema-instance" xsi:noNamespaceSchemaLocation="http://sumo.dlr.de/xsd/net_file.xsd">

    <location netOffset="0.00,0.00" convBoundary="-39.02,-34.27,26.71,36.10" origBoundary="10000000000.00,10000000000.00,-10000000000.00,-10000000000.00" projParameter="!"/>

    <edge id=":J0_0" function="internal">
        <lane id=":J0_0_0" index="0" speed="4.02" length="1.70" shape="-10.20,33.70 -9.82,33.92 -9.42,34.02 -9.01,34.00 -8.59,33.86"/>
    </edge>
    <edge id=":J1_0" function="internal">
        <lane id=":J1_0_0" index="0" speed="3.98" length="1.84" shape="24.17,18.91 24.58,18.66 24.87,18.33 25.04,17.93 25.10,17.45"/>
    </edge>
    <edge id=":J2_0" function="internal">
        <lane id=":J2_0_0" index="0" speed="4.01" length="1.72" shape="24.99,-17.97 24.94,-18.42 24.78,-18.80 24.52,-19.12 24.15,-19.38"/>
    </edge>
    <edge id=":J3_0" function="internal">
        <lane id=":J3_0_0" index="0" speed="4.04" length="1.60" shape="0.77,-32.03 0.39,-32.19 0.00,-32.24 -0.38,-32.19 -0.76,-32.03"/>
    </edge>
    <edge id=":J4_0" function="internal">
        <lane id=":J4_0_0" index="0" speed="4.08" length="1.49" shape="-32.58,-14.61 -32.90,-14.39 -33.14,-14.12 -33.31,-13.80 -33.40,-13.43"/>
    </edge>
    <edge id=":J5_0" function="internal">
        <lane id=":J5_0_0" index="0" speed="4.01" length="1.74" shape="-37.17,12.96 -37.18,13.41 -37.08,13.81 -36.86,14.17 -36.53,14.48"/>
    </edge>

    <edge id="E0" from="J0" to="J1" priority="-1">
        <lane id="E0_0" index="0" speed="13.89" length="36.01" shape="-8.59,33.86 24.17,18.91"/>
    </edge>
    <edge id="E1" from="J1" to="J2" priority="-1">
        <lane id="E1_0" index="0" speed="13.89" length="35.43" shape="25.10,17.45 24.99,-17.97"/>
    </edge>
    <edge id="E2" from="J2" to="J3" priority="-1">
        <lane id="E2_0" index="0" speed="13.89" length="26.59" shape="24.15,-19.38 0.77,-32.03"/>
    </edge>
    <edge id="E3" from="J3" to="J4" priority="-1">
        <lane id="E3_0" index="0" speed="13.89" length="36.28" shape="-0.76,-32.03 -32.58,-14.61"/>
    </edge>
    <edge id="E4" from="J4" to="J5" priority="-1">
        <lane id="E4_0" index="0" speed="13.89" length="26.66" shape="-33.40,-13.43 -37.17,12.96"/>
    </edge>
    <edge id="E5" from="J5" to="J0" priority="-1">
        <lane id="E5_0" index="0" speed="13.89" length="32.60" shape="-36.53,14.48 -10.20,33.70"/>
    </edge>

    <junction id="J0" type="priority" x="-9.63" y="36.10" incLanes="E5_0" intLanes=":J0_0_0" shape="-7.93,35.32 -9.26,32.41 -11.15,34.99 -10.12,35.52 -9.59,35.63 -9.05,35.63 -8.49,35.53">
        <request index="0" response="0" foes="0" cont="0"/>
    </junction>
    <junction id="J1" type="priority" x="26.71" y="19.51" incLanes="E0_0" intLanes=":J1_0_0" shape="26.70,17.45 23.50,17.46 24.83,20.37 25.87,19.66 26.24,19.21 26.50,18.69 26.65,18.10">
        <request index="0" response="0" foes="0" cont="0"/>
    </junction>
    <junction id="J2" type="priority" x="26.59" y="-19.88" incLanes="E1_0" intLanes=":J2_0_0" shape="23.39,-17.97 26.59,-17.98 26.40,-19.13 26.17,-19.63 25.84,-20.07 25.43,-20.45 24.91,-20.78">
        <request index="0" response="0" foes="0" cont="0"/>
    </junction>
    <junction id="J3" type="priority" x="0.00" y="-34.27" incLanes="E2_0" intLanes=":J3_0_0" shape="0.01,-30.62 1.53,-33.44 0.51,-33.81 0.00,-33.85 -0.51,-33.80 -1.02,-33.66 -1.53,-33.43">
        <request index="0" response="0" foes="0" cont="0"/>
    </junction>
    <junction id="J4" type="priority" x="-34.76" y="-15.24" incLanes="E3_0" intLanes=":J4_0_0" shape="-31.81,-13.21 -33.35,-16.01 -34.16,-15.41 -34.46,-15.04 -34.70,-14.62 -34.87,-14.16 -34.98,-13.66">
        <request index="0" response="0" foes="0" cont="0"/>
    </junction>
    <junction id="J5" type="priority" x="-39.02" y="14.63" incLanes="E4_0" intLanes=":J5_0_0" shape="-37.47,15.77 -35.58,13.18 -38.75,12.73 -38.73,13.91 -38.57,14.44 -38.30,14.93 -37.94,15.37">
        <request index="0" response="0" foes="0" cont="0"/>
    </junction>

    <connection from="E0" to="E1" fromLane="0" toLane="0" via=":J1_0_0" dir="r" state="M"/>
    <connection from="E1" to="E2" fromLane="0" toLane="0" via=":J2_0_0" dir="r" state="M"/>
    <connection from="E2" to="E3" fromLane="0" toLane="0" via=":J3_0_0" dir="r" state="M"/>
    <connection from="E3" to="E4" fromLane="0" toLane="0" via=":J4_0_0" dir="r" state="M"/>
    <connection from="E4" to="E5" fromLane="0" toLane="0" via=":J5_0_0" dir="r" state="M"/>
    <connection from="E5" to="E0" fromLane="0" toLane="0" via=":J0_0_0" dir="r" state="M"/>

    <connection from=":J0_0" to="E0" fromLane="0" toLane="0" dir="r" state="M"/>
    <connection from=":J1_0" to="E1" fromLane="0" toLane="0" dir="r" state="M"/>
    <connection from=":J2_0" to="E2" fromLane="0" toLane="0" dir="r" state="M"/>
    <connection from=":J3_0" to="E3" fromLane="0" toLane="0" dir="r" state="M"/>
    <connection from=":J4_0" to="E4" fromLane="0" toLane="0" dir="r" state="M"/>
    <connection from=":J5_0" to="E5" fromLane="0" toLane="0" dir="r" state="M"/>

</net>
